units real
atom_style full
region box block -20 20 -20 20 -20 20
create_box 2 box bond/types 1 angle/types 1             extra/bond/per/atom 2 extra/angle/per/atom 1 extra/special/per/atom 2
Created orthogonal box = (-20 -20 -20) to (20 20 20)

mass 1 15.9994
mass 2 1.008

pair_style lj/long/coul/long cut long 10
pair_coeff 1 1 0.155865 3.178
pair_coeff 2 2 0.0    1.0

bond_style zero
bond_coeff 1 1.0118

angle_style zero
angle_coeff 1 108.15

kspace_style pppm 1e-4

molecule water tip3p.mol  # this uses the TIP3P geometry
Read molecule template water:
  1 molecules
  0 fragments
  3 atoms with max type 2
  2 bonds with max type 1
  1 angles with max type 1
  0 dihedrals with max type 0
  0 impropers with max type 0
create_atoms 0 random 2133 34564 NULL mol water 25367 overlap 1.33
Created 6399 atoms
fix rigid all shake 0.001 10 0 b 1 a 1
Finding SHAKE clusters ...
       0 = # of size 2 clusters
       0 = # of size 3 clusters
       0 = # of size 4 clusters
    2133 = # of frozen angles
  find clusters CPU = 0.000 seconds
minimize 1.0e-4 1.0e-6 1000 10000
PPPM initialization ...
  G vector (1/distance) = 0.26094809
  grid = 20 20 20
  stencil order = 5
  estimated absolute RMS force accuracy = 0.037295178
  estimated relative force accuracy = 0.00011231332
  3d grid and FFT values/proc = 6656 2000
Generated 1 of 1 mixed pair_coeff terms from geometric mixing rule
  Substituting constraints with harmonic restraint forces using kbond=1987 (src/RIGID/fix_shake.cpp:360)
Step          Temp          E_pair         E_mol          TotEng         Press
0   0              47151.607      0              138425.14      673692.28
Loop time of 0.483991 on 4 procs for 21 steps with 6399 atoms

Minimization stats:
  Stopping criterion = linesearch alpha is zero
  Energy initial, next-to-last, final =
  Force two-norm initial, final = 52393.416 2694453.9
  Force max component initial, final = 4832.5011 353707.85
  Final line search alpha, max atom move = 2.505115e-15 8.8607884e-10
  Iterations, force evaluations = 21 67

write_data simulation.data
System init for write_data ...
PPPM initialization ...
  G vector (1/distance) = 0.26094809
  grid = 20 20 20
  stencil order = 5
  estimated absolute RMS force accuracy = 0.037295178
  estimated relative force accuracy = 0.00011231332
  3d grid and FFT values/proc = 6656 2000
Generated 1 of 1 mixed pair_coeff terms from geometric mixing rule
reset_timestep 0
timestep 1.0
velocity all create 300.0 5463576

fix integrate all npt temp 300 300 100.0 iso 1 1 1000.0

thermo 1000
thermo_style custom step temp press density etotal
#dump 1 all custom 100 out/simulation.lammpstrj id mol type x y z vx vy vz

run 100000
PPPM initialization ...
  G vector (1/distance) = 0.26094809
  grid = 20 20 20
  stencil order = 5
  estimated absolute RMS force accuracy = 0.037295178
  estimated relative force accuracy = 0.00011231332
  3d grid and FFT values/proc = 6656 2000
Generated 1 of 1 mixed pair_coeff terms from geometric mixing rule
Step          Temp          Press         Density         TotEng
0   300            18625.571      0.99701995    -5257.8549
Averages over the last 51 of 101 rows, steps 50000 to 100000:
Temp Press Density TotEng
299.561 -29.7474 0.984857 -21107
Loop time of 824.546 on 4 procs for 100000 steps with 6399 atoms
